Version 4
SHEET 1 880 680
WIRE 160 -128 80 -128
WIRE 336 -128 224 -128
WIRE 80 -16 80 -128
WIRE 160 -16 80 -16
WIRE 336 -16 336 -128
WIRE 336 -16 240 -16
WIRE -304 80 -528 80
WIRE -176 80 -224 80
WIRE -144 80 -176 80
WIRE -48 80 -80 80
WIRE 80 80 80 -16
WIRE 80 80 32 80
WIRE -176 96 -176 80
WIRE 160 96 160 64
WIRE -528 128 -528 80
WIRE 80 160 80 80
WIRE 128 160 80 160
WIRE 336 160 336 -16
WIRE 336 160 288 160
WIRE 384 160 336 160
WIRE -176 176 -176 160
WIRE 128 224 80 224
WIRE 336 224 288 224
WIRE 384 224 336 224
WIRE -528 272 -528 208
WIRE -896 288 -896 256
WIRE -784 288 -784 256
WIRE -304 288 -320 288
WIRE -176 288 -224 288
WIRE -144 288 -176 288
WIRE -48 288 -80 288
WIRE 80 288 80 224
WIRE 80 288 32 288
WIRE -176 320 -176 288
WIRE 160 320 160 288
WIRE -896 400 -896 368
WIRE -784 400 -784 368
WIRE -320 400 -320 288
WIRE -176 400 -176 384
WIRE 80 416 80 288
WIRE 160 416 80 416
WIRE 336 416 336 224
WIRE 336 416 240 416
WIRE 80 512 80 416
WIRE 160 512 80 512
WIRE 336 512 336 416
WIRE 336 512 224 512
FLAG -784 400 0
FLAG 160 320 0
FLAG -896 400 0
FLAG -896 256 5V
FLAG 160 64 5V
FLAG -784 256 VCOM
FLAG 192 288 VCOM
FLAG -176 400 0
FLAG -176 176 0
FLAG -320 400 0
FLAG -528 272 0
FLAG 384 224 Vout
FLAG 384 160 Vout_n
FLAG -528 80 vin
SYMBOL OpAmps\\AD8139 160 192 R0
SYMATTR InstName U1
SYMBOL voltage -784 272 R0
WINDOW 123 0 0 Left 0
WINDOW 39 0 0 Left 0
SYMATTR InstName V1
SYMATTR Value 2.5V
SYMBOL voltage -896 272 R0
WINDOW 123 0 0 Left 0
WINDOW 39 0 0 Left 0
SYMATTR InstName V2
SYMATTR Value 5V
SYMBOL res 256 -32 R90
WINDOW 0 0 56 VBottom 2
WINDOW 3 32 56 VTop 2
SYMATTR InstName R1
SYMATTR Value 40k
SYMBOL res 256 400 R90
WINDOW 0 0 56 VBottom 2
WINDOW 3 32 56 VTop 2
SYMATTR InstName R2
SYMATTR Value 40k
SYMBOL res 48 64 R90
WINDOW 0 0 56 VBottom 2
WINDOW 3 32 56 VTop 2
SYMATTR InstName R3
SYMATTR Value 12k
SYMBOL res 48 272 R90
WINDOW 0 0 56 VBottom 2
WINDOW 3 32 56 VTop 2
SYMATTR InstName R4
SYMATTR Value 12k
SYMBOL cap -80 64 R90
WINDOW 0 0 32 VBottom 2
WINDOW 3 32 32 VTop 2
SYMATTR InstName C1
SYMATTR Value 220n
SYMBOL cap -80 272 R90
WINDOW 0 0 32 VBottom 2
WINDOW 3 32 32 VTop 2
SYMATTR InstName C2
SYMATTR Value 220n
SYMBOL cap 224 -144 R90
WINDOW 0 0 32 VBottom 2
WINDOW 3 32 32 VTop 2
SYMATTR InstName C3
SYMATTR Value 100p
SYMBOL cap 224 496 R90
WINDOW 0 0 32 VBottom 2
WINDOW 3 32 32 VTop 2
SYMATTR InstName C4
SYMATTR Value 100p
SYMBOL cap -160 160 R180
WINDOW 0 24 56 Left 2
WINDOW 3 24 8 Left 2
SYMATTR InstName C5
SYMATTR Value 2n2
SYMBOL cap -160 384 R180
WINDOW 0 24 56 Left 2
WINDOW 3 24 8 Left 2
SYMATTR InstName C6
SYMATTR Value 2n2
SYMBOL res -208 272 R90
WINDOW 0 0 56 VBottom 2
WINDOW 3 32 56 VTop 2
SYMATTR InstName R5
SYMATTR Value 1k
SYMBOL res -208 64 R90
WINDOW 0 0 56 VBottom 2
WINDOW 3 32 56 VTop 2
SYMATTR InstName R6
SYMATTR Value 1k
SYMBOL voltage -528 112 R0
WINDOW 123 24 124 Left 2
WINDOW 39 0 0 Left 0
SYMATTR InstName V3
SYMATTR Value SINE(1.65 1.5 1k)
SYMATTR Value2 AC 1
TEXT -928 568 Left 2 !.ac dec 100 1m 1G
TEXT -928 600 Left 2 ;.tran 10m
